data_B2\(5)
_audit_creation_date              2025-10-29
_audit_creation_method            'Materials Studio'
_symmetry_space_group_name_H-M    'P1'
_symmetry_Int_Tables_number       1
_symmetry_cell_setting            triclinic
loop_
_symmetry_equiv_pos_as_xyz
  x,y,z
_cell_length_a                    24.1696
_cell_length_b                    24.1696
_cell_length_c                    18.9154
_cell_angle_alpha                 90.0000
_cell_angle_beta                  90.0000
_cell_angle_gamma                 90.0000
loop_
_atom_site_label
_atom_site_type_symbol
_atom_site_fract_x
_atom_site_fract_y
_atom_site_fract_z
_atom_site_U_iso_or_equiv
_atom_site_adp_type
_atom_site_occupancy
N1     N     0.04792   0.43191   0.42193   0.08981  Uani   1.00
C2     C     0.04869   0.43607   0.34850   0.07660  Uani   1.00
H3     H     0.08817   0.43670   0.32177   0.00000  Uiso   1.00
N4     N    -0.04792   0.56809   0.42193   0.08981  Uani   1.00
C5     C    -0.04869   0.56393   0.34850   0.07660  Uani   1.00
H6     H    -0.08817   0.56330   0.32177   0.00000  Uiso   1.00
N7     N     0.56809   0.04792  -0.07807   0.08981  Uani   1.00
C8     C     0.56393   0.04869  -0.15150   0.07660  Uani   1.00
H9     H     0.56330   0.08817  -0.17823   0.00000  Uiso   1.00
N10    N     0.43191  -0.04792  -0.07807   0.08981  Uani   1.00
C11    C     0.43607  -0.04869  -0.15150   0.07660  Uani   1.00
H12    H     0.43670  -0.08817  -0.17823   0.00000  Uiso   1.00
N13    N    -0.04792   0.43191   0.57807   0.08981  Uani   1.00
C14    C    -0.04869   0.43607   0.65150   0.07660  Uani   1.00
H15    H    -0.08817   0.43670   0.67823   0.00000  Uiso   1.00
N16    N     0.04792   0.56809   0.57807   0.08981  Uani   1.00
C17    C     0.04869   0.56393   0.65150   0.07660  Uani   1.00
H18    H     0.08817   0.56330   0.67823   0.00000  Uiso   1.00
N19    N     0.43191   0.04792   0.07807   0.08981  Uani   1.00
C20    C     0.43607   0.04869   0.15150   0.07660  Uani   1.00
H21    H     0.43670   0.08817   0.17823   0.00000  Uiso   1.00
N22    N     0.56809  -0.04792   0.07807   0.08981  Uani   1.00
C23    C     0.56393  -0.04869   0.15150   0.07660  Uani   1.00
H24    H     0.56330  -0.08817   0.17823   0.00000  Uiso   1.00
N25    N    -0.04792   0.56809   0.57807   0.08981  Uani   1.00
C26    C    -0.04869   0.56393   0.65150   0.07660  Uani   1.00
H27    H    -0.08817   0.56330   0.67823   0.00000  Uiso   1.00
N28    N     0.04792   0.43191   0.57807   0.08981  Uani   1.00
C29    C     0.04869   0.43607   0.65150   0.07660  Uani   1.00
H30    H     0.08817   0.43670   0.67823   0.00000  Uiso   1.00
N31    N     0.43191  -0.04792   0.07807   0.08981  Uani   1.00
C32    C     0.43607  -0.04869   0.15150   0.07660  Uani   1.00
H33    H     0.43670  -0.08817   0.17823   0.00000  Uiso   1.00
N34    N     0.56809   0.04792   0.07807   0.08981  Uani   1.00
C35    C     0.56393   0.04869   0.15150   0.07660  Uani   1.00
H36    H     0.56330   0.08817   0.17823   0.00000  Uiso   1.00
N37    N     0.04792   0.56809   0.42193   0.08981  Uani   1.00
C38    C     0.04869   0.56393   0.34850   0.07660  Uani   1.00
H39    H     0.08817   0.56330   0.32177   0.00000  Uiso   1.00
N40    N    -0.04792   0.43191   0.42193   0.08981  Uani   1.00
C41    C    -0.04869   0.43607   0.34850   0.07660  Uani   1.00
H42    H    -0.08817   0.43670   0.32177   0.00000  Uiso   1.00
N43    N     0.56809  -0.04792  -0.07807   0.08981  Uani   1.00
C44    C     0.56393  -0.04869  -0.15150   0.07660  Uani   1.00
H45    H     0.56330  -0.08817  -0.17823   0.00000  Uiso   1.00
N46    N     0.43191   0.04792  -0.07807   0.08981  Uani   1.00
C47    C     0.43607   0.04869  -0.15150   0.07660  Uani   1.00
H48    H     0.43670   0.08817  -0.17823   0.00000  Uiso   1.00
N49    N     0.00000   0.44043   0.30911   0.06847  Uani   1.00
C50    C     0.00000   0.43186   0.45882   0.07067  Uani   1.00
N51    N     0.00000   0.55957   0.30911   0.06847  Uani   1.00
C52    C     0.00000   0.56814   0.45882   0.07067  Uani   1.00
N53    N     0.55957   0.00000  -0.19089   0.06847  Uani   1.00
C54    C     0.56814   0.00000  -0.04118   0.07067  Uani   1.00
N55    N     0.44043   0.00000  -0.19089   0.06847  Uani   1.00
C56    C     0.43186   0.00000  -0.04118   0.07067  Uani   1.00
N57    N     0.00000   0.44043   0.69089   0.06847  Uani   1.00
C58    C     0.00000   0.43186   0.54118   0.07067  Uani   1.00
N59    N     0.00000   0.55957   0.69089   0.06847  Uani   1.00
C60    C     0.00000   0.56814   0.54118   0.07067  Uani   1.00
N61    N     0.44043   0.00000   0.19089   0.06847  Uani   1.00
C62    C     0.43186   0.00000   0.04118   0.07067  Uani   1.00
N63    N     0.55957   0.00000   0.19089   0.06847  Uani   1.00
C64    C     0.56814   0.00000   0.04118   0.07067  Uani   1.00
Cu65   Fe    0.10175   0.42340   0.50000   0.11469  Uani   0.14
I66    Cl    0.14669   0.32456   0.50000   0.23452  Uani   0.10
Cu67   Fe   -0.10175   0.57660   0.50000   0.11469  Uani   0.14
I68    Cl   -0.14669   0.67544   0.50000   0.23452  Uani   0.10
Cu69   Fe    0.57660   0.10175   0.00000   0.11469  Uani   0.14
I70    Cl    0.67544   0.14669   0.00000   0.23452  Uani   0.10
Cu71   Fe    0.42340  -0.10175   0.00000   0.11469  Uani   0.14
I72    Cl    0.32456  -0.14669   0.00000   0.23452  Uani   0.10
Cu73   Fe   -0.10175   0.42340   0.50000   0.11469  Uani   0.14
I74    Cl   -0.14669   0.32456   0.50000   0.23452  Uani   0.10
Cu75   Fe    0.10175   0.57660   0.50000   0.11469  Uani   0.14
I76    Cl    0.14669   0.67544   0.50000   0.23452  Uani   0.10
Cu77   Fe    0.42340   0.10175   0.00000   0.11469  Uani   0.14
I78    Cl    0.32456   0.14669   0.00000   0.23452  Uani   0.10
Cu79   Fe    0.57660  -0.10175   0.00000   0.11469  Uani   0.14
I80    Cl    0.67544  -0.14669   0.00000   0.23452  Uani   0.10
I81    Cl    0.17587   0.50000   0.50000   0.25275  Uani   0.10
I82    Cl   -0.17587   0.50000   0.50000   0.25275  Uani   0.10
I83    Cl    0.50000   0.17587   0.00000   0.25275  Uani   0.10
I84    Cl    0.50000  -0.17587   0.00000   0.25275  Uani   0.10
loop_
_atom_site_aniso_label
_atom_site_aniso_U_11
_atom_site_aniso_U_22
_atom_site_aniso_U_33
_atom_site_aniso_U_12
_atom_site_aniso_U_13
_atom_site_aniso_U_23
N1        0.05766   0.16401   0.04776  -0.00015   0.00308   0.03356
C2        0.06064   0.12844   0.04071  -0.00092  -0.01505   0.02994
N4        0.05766   0.16401   0.04776  -0.00015  -0.00308  -0.03356
C5        0.06064   0.12844   0.04071  -0.00092   0.01505  -0.02994
N7        0.16401   0.05766   0.04776   0.00015  -0.03356   0.00308
C8        0.12844   0.06064   0.04071   0.00092  -0.02994  -0.01505
N10       0.16401   0.05766   0.04776   0.00015   0.03356  -0.00308
C11       0.12844   0.06064   0.04071   0.00092   0.02994   0.01505
N13       0.05766   0.16401   0.04776   0.00015   0.00308  -0.03356
C14       0.06064   0.12844   0.04071   0.00092  -0.01505  -0.02994
N16       0.05766   0.16401   0.04776   0.00015  -0.00308   0.03356
C17       0.06064   0.12844   0.04071   0.00092   0.01505   0.02994
N19       0.16401   0.05766   0.04776  -0.00015  -0.03356  -0.00308
C20       0.12844   0.06064   0.04071  -0.00092  -0.02994   0.01505
N22       0.16401   0.05766   0.04776  -0.00015   0.03356   0.00308
C23       0.12844   0.06064   0.04071  -0.00092   0.02994  -0.01505
N25       0.05766   0.16401   0.04776  -0.00015   0.00308   0.03356
C26       0.06064   0.12844   0.04071  -0.00092  -0.01505   0.02994
N28       0.05766   0.16401   0.04776  -0.00015  -0.00308  -0.03356
C29       0.06064   0.12844   0.04071  -0.00092   0.01505  -0.02994
N31       0.16401   0.05766   0.04776   0.00015  -0.03356   0.00308
C32       0.12844   0.06064   0.04071   0.00092  -0.02994  -0.01505
N34       0.16401   0.05766   0.04776   0.00015   0.03356  -0.00308
C35       0.12844   0.06064   0.04071   0.00092   0.02994   0.01505
N37       0.05766   0.16401   0.04776   0.00015   0.00308  -0.03356
C38       0.06064   0.12844   0.04071   0.00092  -0.01505  -0.02994
N40       0.05766   0.16401   0.04776   0.00015  -0.00308   0.03356
C41       0.06064   0.12844   0.04071   0.00092   0.01505   0.02994
N43       0.16401   0.05766   0.04776  -0.00015  -0.03356  -0.00308
C44       0.12844   0.06064   0.04071  -0.00092  -0.02994   0.01505
N46       0.16401   0.05766   0.04776  -0.00015   0.03356   0.00308
C47       0.12844   0.06064   0.04071  -0.00092   0.02994  -0.01505
N49       0.03677   0.12741   0.04124   0.00000   0.00000   0.02846
C50       0.07989   0.11352   0.01859   0.00000   0.00000   0.02684
N51       0.03677   0.12741   0.04124   0.00000   0.00000  -0.02846
C52       0.07989   0.11352   0.01859   0.00000   0.00000  -0.02684
N53       0.12741   0.03677   0.04124   0.00000  -0.02846   0.00000
C54       0.11352   0.07989   0.01859   0.00000  -0.02684   0.00000
N55       0.12741   0.03677   0.04124   0.00000   0.02846   0.00000
C56       0.11352   0.07989   0.01859   0.00000   0.02684   0.00000
N57       0.03677   0.12741   0.04124   0.00000   0.00000  -0.02846
C58       0.07989   0.11352   0.01859   0.00000   0.00000  -0.02684
N59       0.03677   0.12741   0.04124   0.00000   0.00000   0.02846
C60       0.07989   0.11352   0.01859   0.00000   0.00000   0.02684
N61       0.12741   0.03677   0.04124   0.00000  -0.02846   0.00000
C62       0.11352   0.07989   0.01859   0.00000  -0.02684   0.00000
N63       0.12741   0.03677   0.04124   0.00000   0.02846   0.00000
C64       0.11352   0.07989   0.01859   0.00000   0.02684   0.00000
Cu65      0.11294   0.15614   0.07500  -0.03217   0.00000   0.00000
I66       0.19380   0.42365   0.08610   0.03966   0.00000   0.00000
Cu67      0.11294   0.15614   0.07500  -0.03217   0.00000   0.00000
I68       0.19380   0.42365   0.08610   0.03966   0.00000   0.00000
Cu69      0.15614   0.11294   0.07500   0.03217   0.00000   0.00000
I70       0.42365   0.19380   0.08610  -0.03966   0.00000   0.00000
Cu71      0.15614   0.11294   0.07500   0.03217   0.00000   0.00000
I72       0.42365   0.19380   0.08610  -0.03966   0.00000   0.00000
Cu73      0.11294   0.15614   0.07500   0.03217   0.00000   0.00000
I74       0.19380   0.42365   0.08610  -0.03966   0.00000   0.00000
Cu75      0.11294   0.15614   0.07500   0.03217   0.00000   0.00000
I76       0.19380   0.42365   0.08610  -0.03966   0.00000   0.00000
Cu77      0.15614   0.11294   0.07500  -0.03217   0.00000   0.00000
I78       0.42365   0.19380   0.08610   0.03966   0.00000   0.00000
Cu79      0.15614   0.11294   0.07500  -0.03217   0.00000   0.00000
I80       0.42365   0.19380   0.08610   0.03966   0.00000   0.00000
I81       0.04639   0.61335   0.09851   0.00000   0.00000   0.00000
I82       0.04639   0.61335   0.09851   0.00000   0.00000   0.00000
I83       0.61335   0.04639   0.09851   0.00000   0.00000   0.00000
I84       0.61335   0.04639   0.09851   0.00000   0.00000   0.00000
loop_
_geom_bond_atom_site_label_1
_geom_bond_atom_site_label_2
_geom_bond_distance
_geom_bond_site_symmetry_2
_ccdc_geom_bond_type
N1     C2      1.393   .     A
N1     C50     1.352   .     A
N1     Cu65    1.979   .     S
C2     N49     1.397   .     A
C2     H3      1.080   .     S
N4     C5      1.393   .     A
N4     C52     1.352   .     A
N4     Cu67    1.979   .     S
C5     N51     1.397   .     A
C5     H6      1.080   .     S
N7     C8      1.393   .     A
N7     C54     1.352   .     A
N7     Cu69    1.979   .     S
C8     N53     1.397   .     A
C8     H9      1.080   .     S
N10    C11     1.393   .     A
N10    C56     1.352   .     A
N10    Cu71    1.979   .     S
C11    N55     1.397   .     A
C11    H12     1.080   .     S
N13    C14     1.393   .     A
N13    C58     1.352   .     A
N13    Cu73    1.979   .     S
C14    N57     1.397   .     A
C14    H15     1.080   .     S
N16    C17     1.393   .     A
N16    C60     1.352   .     A
N16    Cu75    1.979   .     S
C17    N59     1.397   .     A
C17    H18     1.080   .     S
N19    C20     1.393   .     A
N19    C62     1.352   .     A
N19    Cu77    1.979   .     S
C20    N61     1.397   .     A
C20    H21     1.080   .     S
N22    C23     1.393   .     A
N22    C64     1.352   .     A
N22    Cu79    1.979   .     S
C23    N63     1.397   .     A
C23    H24     1.080   .     S
N25    C26     1.393   .     A
N25    C60     1.352   .     A
N25    Cu67    1.979   .     S
C26    N59     1.397   .     A
C26    H27     1.080   .     S
N28    C29     1.393   .     A
N28    C58     1.352   .     A
N28    Cu65    1.979   .     S
C29    N57     1.397   .     A
C29    H30     1.080   .     S
N31    C32     1.393   .     A
N31    C62     1.352   .     A
N31    Cu71    1.979   .     S
C32    N61     1.397   .     A
C32    H33     1.080   .     S
N34    C35     1.393   .     A
N34    C64     1.352   .     A
N34    Cu69    1.979   .     S
C35    N63     1.397   .     A
C35    H36     1.080   .     S
N37    C38     1.393   .     A
N37    C52     1.352   .     A
N37    Cu75    1.979   .     S
C38    N51     1.397   .     A
C38    H39     1.080   .     S
N40    C41     1.393   .     A
N40    C50     1.352   .     A
N40    Cu73    1.979   .     S
C41    N49     1.397   .     A
C41    H42     1.080   .     S
N43    C44     1.393   .     A
N43    C54     1.352   .     A
N43    Cu79    1.979   .     S
C44    N53     1.397   .     A
C44    H45     1.080   .     S
N46    C47     1.393   .     A
N46    C56     1.352   .     A
N46    Cu77    1.979   .     S
C47    N55     1.397   .     A
C47    H48     1.080   .     S
C50    C58     1.558   .     S
C52    C60     1.558   .     S
C54    C64     1.558   .     S
C56    C62     1.558   .     S
Cu65   I66     2.624   .     S
Cu65   I81     2.576   .     S
Cu67   I68     2.624   .     S
Cu67   I82     2.576   .     S
Cu69   I70     2.624   .     S
Cu69   I83     2.576   .     S
Cu71   I72     2.624   .     S
Cu71   I84     2.576   .     S
Cu73   I74     2.624   .     S
Cu73   I82     2.576   .     S
Cu75   I76     2.624   .     S
Cu75   I81     2.576   .     S
Cu77   I78     2.624   .     S
Cu77   I83     2.576   .     S
Cu79   I80     2.624   .     S
Cu79   I84     2.576   .     S
