data_06-E2
_audit_creation_date              2025-10-29
_audit_creation_method            'Materials Studio'
_symmetry_space_group_name_H-M    'P1'
_symmetry_Int_Tables_number       1
_symmetry_cell_setting            triclinic
loop_
_symmetry_equiv_pos_as_xyz
  x,y,z
_cell_length_a                    24.2890
_cell_length_b                    24.2890
_cell_length_c                    18.9660
_cell_angle_alpha                 90.0000
_cell_angle_beta                  90.0000
_cell_angle_gamma                 90.0000
loop_
_atom_site_label
_atom_site_type_symbol
_atom_site_fract_x
_atom_site_fract_y
_atom_site_fract_z
_atom_site_U_iso_or_equiv
_atom_site_adp_type
_atom_site_occupancy
O1     O     0.83280   0.50000   0.05880   0.12433  Uani   1.00
C2     C     0.72870   0.50000   0.06420   0.15400  Uani   0.67
H3     H     0.74868   0.50000   0.10721   0.18500  Uiso   0.67
C4     C     0.67090   0.50000   0.06430   0.16333  Uani   0.67
H5     H     0.65111   0.50000   0.10747   0.19600  Uiso   0.67
O6     O     0.16720   0.50000   0.05880   0.12433  Uani   1.00
C7     C     0.27130   0.50000   0.06420   0.15400  Uani   0.67
H8     H     0.25132   0.50000   0.10721   0.18500  Uiso   0.67
C9     C     0.32910   0.50000   0.06430   0.16333  Uani   0.67
H10    H     0.34889   0.50000   0.10747   0.19600  Uiso   0.67
O11    O     0.50000   0.83280   0.55880   0.12433  Uani   1.00
C12    C     0.50000   0.72870   0.56420   0.15400  Uani   0.67
H13    H     0.50000   0.74868   0.60721   0.18500  Uiso   0.67
C14    C     0.50000   0.67090   0.56430   0.16333  Uani   0.67
H15    H     0.50000   0.65111   0.60747   0.19600  Uiso   0.67
O16    O     0.50000   0.16720   0.55880   0.12433  Uani   1.00
C17    C     0.50000   0.27130   0.56420   0.15400  Uani   0.67
H18    H     0.50000   0.25132   0.60721   0.18500  Uiso   0.67
C19    C     0.50000   0.32910   0.56430   0.16333  Uani   0.67
H20    H     0.50000   0.34889   0.60747   0.19600  Uiso   0.67
O21    O     0.16720   0.50000  -0.05880   0.12433  Uani   1.00
C22    C     0.27130   0.50000  -0.06420   0.15400  Uani   0.67
H23    H     0.25132   0.50000  -0.10721   0.18500  Uiso   0.67
C24    C     0.32910   0.50000  -0.06430   0.16333  Uani   0.67
H25    H     0.34889   0.50000  -0.10747   0.19600  Uiso   0.67
O26    O     0.83280   0.50000  -0.05880   0.12433  Uani   1.00
C27    C     0.72870   0.50000  -0.06420   0.15400  Uani   0.67
H28    H     0.74868   0.50000  -0.10721   0.18500  Uiso   0.67
C29    C     0.67090   0.50000  -0.06430   0.16333  Uani   0.67
H30    H     0.65111   0.50000  -0.10747   0.19600  Uiso   0.67
O31    O     0.50000   0.83280   0.44120   0.12433  Uani   1.00
C32    C     0.50000   0.72870   0.43580   0.15400  Uani   0.67
H33    H     0.50000   0.74868   0.39279   0.18500  Uiso   0.67
C34    C     0.50000   0.67090   0.43570   0.16333  Uani   0.67
H35    H     0.50000   0.65111   0.39253   0.19600  Uiso   0.67
O36    O     0.50000   0.16720   0.44120   0.12433  Uani   1.00
C37    C     0.50000   0.27130   0.43580   0.15400  Uani   0.67
H38    H     0.50000   0.25132   0.39279   0.18500  Uiso   0.67
C39    C     0.50000   0.32910   0.43570   0.16333  Uani   0.67
H40    H     0.50000   0.34889   0.39253   0.19600  Uiso   0.67
N41    N     0.55430   0.44980   0.00000   0.17333  Uani   0.67
N42    N     0.44570   0.55020   0.00000   0.17333  Uani   0.67
N43    N     0.55020   0.55430   0.50000   0.17333  Uani   0.67
N44    N     0.44980   0.44570   0.50000   0.17333  Uani   0.67
N45    N     0.44570   0.44980   0.00000   0.17333  Uani   0.67
N46    N     0.55430   0.55020   0.00000   0.17333  Uani   0.67
N47    N     0.44980   0.55430   0.50000   0.17333  Uani   0.67
N48    N     0.55020   0.44570   0.50000   0.17333  Uani   0.67
C49    C     0.75600   0.50000   0.00000   0.14133  Uani   0.67
C50    C     0.81200   0.50000   0.00000   0.13367  Uani   0.67
C51    C     0.64300   0.50000   0.00000   0.16333  Uani   0.67
C52    C     0.58130   0.50000   0.00000   0.17000  Uani   0.67
C53    C     0.24400   0.50000   0.00000   0.14133  Uani   0.67
C54    C     0.18800   0.50000   0.00000   0.13367  Uani   0.67
C55    C     0.35700   0.50000   0.00000   0.16333  Uani   0.67
C56    C     0.41870   0.50000   0.00000   0.17000  Uani   0.67
C57    C     0.50000   0.75600   0.50000   0.14133  Uani   0.67
C58    C     0.50000   0.81200   0.50000   0.13367  Uani   0.67
C59    C     0.50000   0.64300   0.50000   0.16333  Uani   0.67
C60    C     0.50000   0.58130   0.50000   0.17000  Uani   0.67
C61    C     0.50000   0.24400   0.50000   0.14133  Uani   0.67
C62    C     0.50000   0.18800   0.50000   0.13367  Uani   0.67
C63    C     0.50000   0.35700   0.50000   0.16333  Uani   0.67
C64    C     0.50000   0.41870   0.50000   0.17000  Uani   0.67
C65    C     0.50000   0.47110   0.00000   0.17667  Uani   0.34
C66    C     0.50000   0.52890   0.00000   0.17667  Uani   0.34
C67    C     0.52890   0.50000   0.50000   0.17667  Uani   0.34
C68    C     0.47110   0.50000   0.50000   0.17667  Uani   0.34
loop_
_atom_site_aniso_label
_atom_site_aniso_U_11
_atom_site_aniso_U_22
_atom_site_aniso_U_33
_atom_site_aniso_U_12
_atom_site_aniso_U_13
_atom_site_aniso_U_23
O1        0.11400   0.11900   0.14000   0.00000   0.00600   0.00000
C2        0.10000   0.17200   0.19000   0.00000  -0.00200   0.00000
C4        0.10000   0.19000   0.20000   0.00000   0.00000   0.00000
O6        0.11400   0.11900   0.14000   0.00000  -0.00600   0.00000
C7        0.10000   0.17200   0.19000   0.00000   0.00200   0.00000
C9        0.10000   0.19000   0.20000   0.00000   0.00000   0.00000
O11       0.11900   0.11400   0.14000   0.00000   0.00000   0.00600
C12       0.17200   0.10000   0.19000   0.00000   0.00000  -0.00200
C14       0.19000   0.10000   0.20000   0.00000   0.00000   0.00000
O16       0.11900   0.11400   0.14000   0.00000   0.00000  -0.00600
C17       0.17200   0.10000   0.19000   0.00000   0.00000   0.00200
C19       0.19000   0.10000   0.20000   0.00000   0.00000   0.00000
O21       0.11400   0.11900   0.14000   0.00000   0.00600   0.00000
C22       0.10000   0.17200   0.19000   0.00000  -0.00200   0.00000
C24       0.10000   0.19000   0.20000   0.00000   0.00000   0.00000
O26       0.11400   0.11900   0.14000   0.00000  -0.00600   0.00000
C27       0.10000   0.17200   0.19000   0.00000   0.00200   0.00000
C29       0.10000   0.19000   0.20000   0.00000   0.00000   0.00000
O31       0.11900   0.11400   0.14000   0.00000   0.00000  -0.00600
C32       0.17200   0.10000   0.19000   0.00000   0.00000   0.00200
C34       0.19000   0.10000   0.20000   0.00000   0.00000   0.00000
O36       0.11900   0.11400   0.14000   0.00000   0.00000   0.00600
C37       0.17200   0.10000   0.19000   0.00000   0.00000  -0.00200
C39       0.19000   0.10000   0.20000   0.00000   0.00000   0.00000
N41       0.08000   0.21000   0.23000   0.00400   0.00000   0.00000
N42       0.08000   0.21000   0.23000   0.00400   0.00000   0.00000
N43       0.21000   0.08000   0.23000  -0.00400   0.00000   0.00000
N44       0.21000   0.08000   0.23000  -0.00400   0.00000   0.00000
N45       0.08000   0.21000   0.23000  -0.00400   0.00000   0.00000
N46       0.08000   0.21000   0.23000  -0.00400   0.00000   0.00000
N47       0.21000   0.08000   0.23000   0.00400   0.00000   0.00000
N48       0.21000   0.08000   0.23000   0.00400   0.00000   0.00000
C49       0.10300   0.15100   0.17000   0.00000   0.00000   0.00000
C50       0.10900   0.13200   0.16000   0.00000   0.00000   0.00000
C51       0.09000   0.19000   0.21000   0.00000   0.00000   0.00000
C52       0.09000   0.20000   0.22000   0.00000   0.00000   0.00000
C53       0.10300   0.15100   0.17000   0.00000   0.00000   0.00000
C54       0.10900   0.13200   0.16000   0.00000   0.00000   0.00000
C55       0.09000   0.19000   0.21000   0.00000   0.00000   0.00000
C56       0.09000   0.20000   0.22000   0.00000   0.00000   0.00000
C57       0.15100   0.10300   0.17000   0.00000   0.00000   0.00000
C58       0.13200   0.10900   0.16000   0.00000   0.00000   0.00000
C59       0.19000   0.09000   0.21000   0.00000   0.00000   0.00000
C60       0.20000   0.09000   0.22000   0.00000   0.00000   0.00000
C61       0.15100   0.10300   0.17000   0.00000   0.00000   0.00000
C62       0.13200   0.10900   0.16000   0.00000   0.00000   0.00000
C63       0.19000   0.09000   0.21000   0.00000   0.00000   0.00000
C64       0.20000   0.09000   0.22000   0.00000   0.00000   0.00000
C65       0.09000   0.21000   0.23000   0.00000   0.00000   0.00000
C66       0.09000   0.21000   0.23000   0.00000   0.00000   0.00000
C67       0.21000   0.09000   0.23000   0.00000   0.00000   0.00000
C68       0.21000   0.09000   0.23000   0.00000   0.00000   0.00000
loop_
_geom_bond_atom_site_label_1
_geom_bond_atom_site_label_2
_geom_bond_distance
_geom_bond_site_symmetry_2
_ccdc_geom_bond_type
O1     C50     1.224   .     A
C2     C49     1.386   .     A
C2     H3      0.949   .     S
C2     C4      1.404   .     A
C4     C51     1.395   .     A
C4     H5      0.949   .     S
O6     C54     1.224   .     A
C7     C53     1.386   .     A
C7     H8      0.949   .     S
C7     C9      1.404   .     A
C9     C55     1.395   .     A
C9     H10     0.949   .     S
O11    C58     1.224   .     A
C12    C57     1.386   .     A
C12    H13     0.949   .     S
C12    C14     1.404   .     A
C14    C59     1.395   .     A
C14    H15     0.949   .     S
O16    C62     1.224   .     A
C17    C61     1.386   .     A
C17    H18     0.949   .     S
C17    C19     1.404   .     A
C19    C63     1.395   .     A
C19    H20     0.949   .     S
O21    C54     1.224   .     A
C22    C53     1.386   .     A
C22    H23     0.949   .     S
C22    C24     1.404   .     A
C24    C55     1.395   .     A
C24    H25     0.949   .     S
O26    C50     1.224   .     A
C27    C49     1.386   .     A
C27    H28     0.949   .     S
C27    C29     1.404   .     A
C29    C51     1.395   .     A
C29    H30     0.949   .     S
O31    C58     1.224   .     A
C32    C57     1.386   .     A
C32    H33     0.949   .     S
C32    C34     1.404   .     A
C34    C59     1.395   .     A
C34    H35     0.949   .     S
O36    C62     1.224   .     A
C37    C61     1.386   .     A
C37    H38     0.949   .     S
C37    C39     1.404   .     A
C39    C63     1.395   .     A
C39    H40     0.949   .     S
N41    C52     1.384   .     A
N41    C65     1.417   .     A
N42    C56     1.384   .     A
N42    C66     1.417   .     A
N43    C60     1.384   .     A
N43    C67     1.417   .     A
N44    C64     1.384   .     A
N44    C68     1.417   .     A
N45    C56     1.384   .     A
N45    C65     1.417   .     A
N46    C52     1.384   .     A
N46    C66     1.417   .     A
N47    C60     1.384   .     A
N47    C68     1.417   .     A
N48    C64     1.384   .     A
N48    C67     1.417   .     A
C49    C50     1.360   .     S
C51    C52     1.499   .     S
C53    C54     1.360   .     S
C55    C56     1.499   .     S
C57    C58     1.360   .     S
C59    C60     1.499   .     S
C61    C62     1.360   .     S
C63    C64     1.499   .     S
C65    C66     1.404   .     S
C67    C68     1.404   .     S
