# written by c2x
data_c2x

_cell_length_a      24.1696000
_cell_length_b      24.1696000
_cell_length_c      18.9154000
_cell_angle_alpha   90.0000000
_cell_angle_beta    90.0000000
_cell_angle_gamma   90.0000000


loop_
_atom_site_type_symbol
_atom_site_fract_x
_atom_site_fract_y
_atom_site_fract_z
_atom_site_U_iso_or_equiv
_atom_site_occupancy
I 0.3245600000 0.1466900000 0.0000000000 0.01 1.00
I 0.5000000000 0.1758700000 0.0000000000 0.01 1.00
Zr 0.0000000000 0.3958500000 0.0000000000 0.01 1.00
Zr 0.0703400000 0.5000000000 0.0909600000 0.01 1.00
Cu 0.4234000000 0.1017500000 0.0000000000 0.01 1.00
Ni 0.0000000000 0.4439600000 0.2024800000 0.01 1.00
O 0.0694500000 0.4485700000 0.0000000000 0.01 1.00
O 0.0536200000 0.3391200000 0.0546000000 0.01 1.00
O 0.1672000000 0.5000000000 0.0588000000 0.01 1.00
O 0.0000000000 0.4478000000 0.1013400000 0.01 1.00
O 0.1175200000 0.4360500000 0.1393300000 0.01 1.00
O 0.0496400000 0.5000000000 0.2007400000 0.01 1.00
O 0.0527300000 0.3924000000 0.2035700000 0.01 1.00
N 0.4457000000 0.4498000000 0.0000000000 0.01 1.00
N 0.4319100000 0.0479200000 0.0780700000 0.01 1.00
N 0.4404300000 0.0000000000 0.1908900000 0.01 1.00
C 0.5000000000 0.4711000000 0.0000000000 0.01 1.00
C 0.1880000000 0.5000000000 0.0000000000 0.01 1.00
C 0.2440000000 0.5000000000 0.0000000000 0.01 1.00
C 0.3570000000 0.5000000000 0.0000000000 0.01 1.00
C 0.4187000000 0.5000000000 0.0000000000 0.01 1.00
C 0.4318600000 0.0000000000 0.0411800000 0.01 1.00
C 0.2713000000 0.5000000000 0.0642000000 0.01 1.00
C 0.3291000000 0.5000000000 0.0643000000 0.01 1.00
C 0.2921300000 0.3087600000 0.1452700000 0.01 1.00
C 0.4360700000 0.0486900000 0.1515000000 0.01 1.00
C 0.1974600000 0.3500000000 0.1664800000 0.01 1.00
C 0.1028600000 0.3964600000 0.1808400000 0.01 1.00
C 0.2379500000 0.3095900000 0.1844900000 0.01 1.00
C 0.1455200000 0.3525900000 0.2007400000 0.01 1.00
C 0.2730600000 0.1756300000 0.2270200000 0.01 1.00
C 0.2274700000 0.2704100000 0.2388400000 0.01 1.00
C 0.3131000000 0.1354100000 0.2458200000 0.01 1.00
H 0.1036400000 0.4265700000 0.0000000000 0.01 1.00
H 0.0913400000 0.3542700000 0.0593600000 0.01 1.00
H 0.0418100000 0.3331500000 0.1036400000 0.01 1.00
H 0.2941600000 0.3417900000 0.1045100000 0.01 1.00
H 0.2513200000 0.5000000000 0.1072100000 0.01 1.00
H 0.3488900000 0.5000000000 0.1074700000 0.01 1.00
H 0.2974200000 0.2682300000 0.1184600000 0.01 1.00
H 0.2065700000 0.3795400000 0.1250000000 0.01 1.00
H 0.4367000000 0.0881700000 0.1782300000 0.01 1.00
H 0.3268200000 0.3151200000 0.1828500000 0.01 1.00
H 0.2439900000 0.1662300000 0.1851500000 0.01 1.00
H 0.3134400000 0.0963800000 0.2177300000 0.01 1.00

loop_
_symmetry_equiv_pos_as_xyz
x,y,z
-x,-y,-z
-y,+x,+z+1/2
+y,-x,-z+1/2
-x,-y,+z
+x,+y,-z
+y,-x,+z+1/2
-y,+x,-z+1/2
+x,-y,-z
-x,+y,+z
-y,-x,-z+1/2
+y,+x,+z+1/2
-x,+y,-z
+x,-y,+z
+y,+x,-z+1/2
-y,-x,+z+1/2
