data_rutile
_audit_creation_date              2025-06-09
_audit_creation_method            'Materials Studio'
_symmetry_space_group_name_H-M    'P42/MNM'
_symmetry_Int_Tables_number       136
_symmetry_cell_setting            tetragonal
loop_
_symmetry_equiv_pos_as_xyz
  x,y,z
  -x,-y,z
  -y+1/2,x+1/2,z+1/2
  y+1/2,-x+1/2,z+1/2
  -x+1/2,y+1/2,-z+1/2
  x+1/2,-y+1/2,-z+1/2
  y,x,-z
  -y,-x,-z
  -x,-y,-z
  x,y,-z
  y+1/2,-x+1/2,-z+1/2
  -y+1/2,x+1/2,-z+1/2
  x+1/2,-y+1/2,z+1/2
  -x+1/2,y+1/2,z+1/2
  -y,-x,z
  y,x,z
_cell_length_a                    4.5937
_cell_length_b                    4.5937
_cell_length_c                    2.9587
_cell_angle_alpha                 90.0000
_cell_angle_beta                  90.0000
_cell_angle_gamma                 90.0000
loop_
_atom_site_label
_atom_site_type_symbol
_atom_site_fract_x
_atom_site_fract_y
_atom_site_fract_z
_atom_site_U_iso_or_equiv
_atom_site_adp_type
_atom_site_occupancy
Ti     Ti    0.00000   0.00000   0.00000   0.00213  Uani   1.00
O      O     0.30478   0.30478   0.00000   0.00107  Uani   1.00
loop_
_atom_site_aniso_label
_atom_site_aniso_U_11
_atom_site_aniso_U_22
_atom_site_aniso_U_33
_atom_site_aniso_U_12
_atom_site_aniso_U_13
_atom_site_aniso_U_23
Ti        0.00320   0.00320   0.00000   0.00680   0.00000   0.00000
O         0.00160   0.00160   0.00000   0.00520   0.00000   0.00000
loop_
_geom_bond_atom_site_label_1
_geom_bond_atom_site_label_2
_geom_bond_distance
_geom_bond_site_symmetry_2
_ccdc_geom_bond_type
Ti     O       1.980   .     S
Ti     O       1.980   2     S
Ti     O       1.949   4_455 S
Ti     O       1.949   3_545 S
Ti     O       1.949   3_544 S
Ti     O       1.949   4_454 S
O      Ti      1.949   3_554 S
O      Ti      1.949   3     S
